File D:\ITI Study Stuff\Graduation Project\SAC\SAC Projects\Test\SAP Model\Test.$2k was saved on m/d/yy at h:mm:ss
 
TABLE:  "ACTIVE DEGREES OF FREEDOM"
   UX=Yes   UY=Yes   UZ=Yes   RX=Yes   RY=Yes   RZ=Yes
 
TABLE:  "ANALYSIS OPTIONS"
   Solver=Advanced   SolverProc=Auto   Force32Bit=No   StiffCase=None   GeomMod=None
 
TABLE:  "AUTO WAVE 3 - WAVE CHARACTERISTICS - GENERAL"
   WaveChar=Default   WaveType="From Theory"   KinFactor=1   SWaterDepth=45   WaveHeight=18   WavePeriod=12   WaveTheory=Linear
 
TABLE:  "CASE - STATIC 1 - LOAD ASSIGNMENTS"
   Case=p1   LoadType="Load pattern"   LoadName=p1   LoadSF=1
   Case=p2   LoadType="Load pattern"   LoadName=p2   LoadSF=1
 
TABLE:  "COMBINATION DEFINITIONS"
   ComboName=c1   ComboType="Linear Add"   AutoDesign=No   CaseName=p1   ScaleFactor=1   SteelDesign=None   ConcDesign=None   AlumDesign=None   ColdDesign=None   GUID=d25dd416-9689-4460-b7cb-b637732dbc53
 
TABLE:  "CONNECTIVITY - FRAME"
   Frame=22   JointI=27   JointJ=28   IsCurved=No   GUID=d3b1336a-84a9-440a-a41a-d9e2f8b74e69
   Frame=23   JointI=28   JointJ=29   IsCurved=No   GUID=5783adb4-9449-4ff1-b148-b90caa42824b
   Frame=24   JointI=29   JointJ=30   IsCurved=No   GUID=72438039-0499-459b-8544-7fedf15db8ac
   Frame=25   JointI=30   JointJ=31   IsCurved=No   GUID=7ac327f3-64d6-4040-9370-434b101bfc32
   Frame=26   JointI=32   JointJ=31   IsCurved=No   GUID=f1e2d840-7e16-4da6-8686-a3c565ace795
   Frame=57   JointI=69   JointJ=70   IsCurved=No   GUID=4ef504d7-b6bc-49ba-80b1-f7a15f9ccf0b
   Frame=58   JointI=70   JointJ=71   IsCurved=No   GUID=1a7aeab8-2572-47f1-a01a-b0d2394ae537
   Frame=59   JointI=71   JointJ=72   IsCurved=No   GUID=ea28dba8-881c-403b-b675-96c0df0d510b
   Frame=60   JointI=72   JointJ=73   IsCurved=No   GUID=958c17e2-347d-4d59-9d52-e5e86ebd50d8
   Frame=61   JointI=74   JointJ=73   IsCurved=No   GUID=7bf8ca8e-f928-44c5-8256-b5c594e31292
   Frame=62   JointI=75   JointJ=76   IsCurved=No   GUID=f8accf53-2cf3-47ae-af24-b1195b945934
   Frame=63   JointI=76   JointJ=77   IsCurved=No   GUID=725d8b06-51d0-4b03-b3be-731df94a37ef
   Frame=64   JointI=77   JointJ=78   IsCurved=No   GUID=59433ad9-0ae9-4af7-ab5d-23376eb19bed
   Frame=65   JointI=78   JointJ=79   IsCurved=No   GUID=526b35ca-392a-46f1-a99c-64a9f99ff8e9
   Frame=66   JointI=80   JointJ=79   IsCurved=No   GUID=38801c17-240b-4000-adde-9ab04014523d
   Frame=67   JointI=81   JointJ=82   IsCurved=No   GUID=d774c110-35be-44fa-b665-134ab9496c8a
   Frame=68   JointI=82   JointJ=83   IsCurved=No   GUID=5cfac3c9-2ae0-44aa-a38c-899b149db453
   Frame=69   JointI=83   JointJ=84   IsCurved=No   GUID=8b7391a2-a0b4-4d0c-a5cb-9593330dc4c9
   Frame=70   JointI=84   JointJ=85   IsCurved=No   GUID=899305a0-ed3c-4966-a24b-bbe4ccaadbf6
   Frame=71   JointI=86   JointJ=85   IsCurved=No   GUID=211d1cfd-d873-4062-ac5c-b44e2635d9f7
   Frame=72   JointI=31   JointJ=85   IsCurved=No   GUID=aaa358f2-9104-465f-91a7-84352dd5953d
   Frame=73   JointI=28   JointJ=82   IsCurved=No   GUID=1c0eb4b5-c608-4b56-9efe-5684977684de
   Frame=74   JointI=29   JointJ=83   IsCurved=No   GUID=acecfaad-d61d-42e6-a9dc-bbcaa238dc9e
   Frame=75   JointI=30   JointJ=84   IsCurved=No   GUID=b73b1c1a-f5da-4b01-a014-a61548d42062
 
TABLE:  "COORDINATE SYSTEMS"
   Name=GLOBAL   Type=Cartesian   X=0   Y=0   Z=0   AboutZ=0   AboutY=0   AboutX=0
 
TABLE:  "DATABASE DOCUMENTATION"
 
TABLE:  "DATABASE FORMAT TYPES"
   UnitsCurr=Yes   OverrideE=No
 
TABLE:  "FRAME AUTO MESH ASSIGNMENTS"
   Frame=22   AutoMesh=Yes   AtJoints=Yes   AtFrames=No   NumSegments=0   MaxLength=0   MaxDegrees=0
   Frame=23   AutoMesh=Yes   AtJoints=Yes   AtFrames=No   NumSegments=0   MaxLength=0   MaxDegrees=0
   Frame=24   AutoMesh=Yes   AtJoints=Yes   AtFrames=No   NumSegments=0   MaxLength=0   MaxDegrees=0
   Frame=25   AutoMesh=Yes   AtJoints=Yes   AtFrames=No   NumSegments=0   MaxLength=0   MaxDegrees=0
   Frame=26   AutoMesh=Yes   AtJoints=Yes   AtFrames=No   NumSegments=0   MaxLength=0   MaxDegrees=0
   Frame=57   AutoMesh=Yes   AtJoints=Yes   AtFrames=No   NumSegments=0   MaxLength=0   MaxDegrees=0
   Frame=58   AutoMesh=Yes   AtJoints=Yes   AtFrames=No   NumSegments=0   MaxLength=0   MaxDegrees=0
   Frame=59   AutoMesh=Yes   AtJoints=Yes   AtFrames=No   NumSegments=0   MaxLength=0   MaxDegrees=0
   Frame=60   AutoMesh=Yes   AtJoints=Yes   AtFrames=No   NumSegments=0   MaxLength=0   MaxDegrees=0
   Frame=61   AutoMesh=Yes   AtJoints=Yes   AtFrames=No   NumSegments=0   MaxLength=0   MaxDegrees=0
   Frame=62   AutoMesh=Yes   AtJoints=Yes   AtFrames=No   NumSegments=0   MaxLength=0   MaxDegrees=0
   Frame=63   AutoMesh=Yes   AtJoints=Yes   AtFrames=No   NumSegments=0   MaxLength=0   MaxDegrees=0
   Frame=64   AutoMesh=Yes   AtJoints=Yes   AtFrames=No   NumSegments=0   MaxLength=0   MaxDegrees=0
   Frame=65   AutoMesh=Yes   AtJoints=Yes   AtFrames=No   NumSegments=0   MaxLength=0   MaxDegrees=0
   Frame=66   AutoMesh=Yes   AtJoints=Yes   AtFrames=No   NumSegments=0   MaxLength=0   MaxDegrees=0
   Frame=67   AutoMesh=Yes   AtJoints=Yes   AtFrames=No   NumSegments=0   MaxLength=0   MaxDegrees=0
   Frame=68   AutoMesh=Yes   AtJoints=Yes   AtFrames=No   NumSegments=0   MaxLength=0   MaxDegrees=0
   Frame=69   AutoMesh=Yes   AtJoints=Yes   AtFrames=No   NumSegments=0   MaxLength=0   MaxDegrees=0
   Frame=70   AutoMesh=Yes   AtJoints=Yes   AtFrames=No   NumSegments=0   MaxLength=0   MaxDegrees=0
   Frame=71   AutoMesh=Yes   AtJoints=Yes   AtFrames=No   NumSegments=0   MaxLength=0   MaxDegrees=0
# ... 4 like lines cut
 
TABLE:  "FRAME DESIGN PROCEDURES"
   Frame=22   DesignProc="From Material"
   Frame=23   DesignProc="From Material"
   Frame=24   DesignProc="From Material"
   Frame=25   DesignProc="From Material"
   Frame=26   DesignProc="From Material"
   Frame=57   DesignProc="From Material"
   Frame=58   DesignProc="From Material"
   Frame=59   DesignProc="From Material"
   Frame=60   DesignProc="From Material"
   Frame=61   DesignProc="From Material"
   Frame=62   DesignProc="From Material"
   Frame=63   DesignProc="From Material"
   Frame=64   DesignProc="From Material"
   Frame=65   DesignProc="From Material"
   Frame=66   DesignProc="From Material"
   Frame=67   DesignProc="From Material"
   Frame=68   DesignProc="From Material"
   Frame=69   DesignProc="From Material"
   Frame=70   DesignProc="From Material"
   Frame=71   DesignProc="From Material"
# ... 4 like lines cut
 
TABLE:  "FRAME LOAD TRANSFER OPTIONS"
   Frame=22   Transfer=Yes
   Frame=23   Transfer=Yes
   Frame=24   Transfer=Yes
   Frame=25   Transfer=Yes
   Frame=26   Transfer=Yes
   Frame=57   Transfer=Yes
   Frame=58   Transfer=Yes
   Frame=59   Transfer=Yes
   Frame=60   Transfer=Yes
   Frame=61   Transfer=Yes
   Frame=62   Transfer=Yes
   Frame=63   Transfer=Yes
   Frame=64   Transfer=Yes
   Frame=65   Transfer=Yes
   Frame=66   Transfer=Yes
   Frame=67   Transfer=Yes
   Frame=68   Transfer=Yes
   Frame=69   Transfer=Yes
   Frame=70   Transfer=Yes
   Frame=71   Transfer=Yes
# ... 4 like lines cut
 
TABLE:  "FRAME OUTPUT STATION ASSIGNMENTS"
   Frame=22   StationType=MinNumSta   MinNumSta=12   AddAtElmInt=Yes   AddAtPtLoad=Yes
   Frame=23   StationType=MinNumSta   MinNumSta=13   AddAtElmInt=Yes   AddAtPtLoad=Yes
   Frame=24   StationType=MinNumSta   MinNumSta=12   AddAtElmInt=Yes   AddAtPtLoad=Yes
   Frame=25   StationType=MinNumSta   MinNumSta=13   AddAtElmInt=Yes   AddAtPtLoad=Yes
   Frame=26   StationType=MinNumSta   MinNumSta=12   AddAtElmInt=Yes   AddAtPtLoad=Yes
   Frame=57   StationType=MinNumSta   MinNumSta=12   AddAtElmInt=Yes   AddAtPtLoad=Yes
   Frame=58   StationType=MinNumSta   MinNumSta=13   AddAtElmInt=Yes   AddAtPtLoad=Yes
   Frame=59   StationType=MinNumSta   MinNumSta=12   AddAtElmInt=Yes   AddAtPtLoad=Yes
   Frame=60   StationType=MinNumSta   MinNumSta=13   AddAtElmInt=Yes   AddAtPtLoad=Yes
   Frame=61   StationType=MinNumSta   MinNumSta=12   AddAtElmInt=Yes   AddAtPtLoad=Yes
   Frame=62   StationType=MinNumSta   MinNumSta=12   AddAtElmInt=Yes   AddAtPtLoad=Yes
   Frame=63   StationType=MinNumSta   MinNumSta=13   AddAtElmInt=Yes   AddAtPtLoad=Yes
   Frame=64   StationType=MinNumSta   MinNumSta=12   AddAtElmInt=Yes   AddAtPtLoad=Yes
   Frame=65   StationType=MinNumSta   MinNumSta=13   AddAtElmInt=Yes   AddAtPtLoad=Yes
   Frame=66   StationType=MinNumSta   MinNumSta=12   AddAtElmInt=Yes   AddAtPtLoad=Yes
   Frame=67   StationType=MinNumSta   MinNumSta=12   AddAtElmInt=Yes   AddAtPtLoad=Yes
   Frame=68   StationType=MinNumSta   MinNumSta=13   AddAtElmInt=Yes   AddAtPtLoad=Yes
   Frame=69   StationType=MinNumSta   MinNumSta=12   AddAtElmInt=Yes   AddAtPtLoad=Yes
   Frame=70   StationType=MinNumSta   MinNumSta=13   AddAtElmInt=Yes   AddAtPtLoad=Yes
   Frame=71   StationType=MinNumSta   MinNumSta=12   AddAtElmInt=Yes   AddAtPtLoad=Yes
# ... 4 like lines cut
 
TABLE:  "FRAME SECTION ASSIGNMENTS"
   Frame=22   AutoSelect=N.A.   AnalSect=Fsec1   MatProp=Default
   Frame=23   AutoSelect=N.A.   AnalSect=Fsec1   MatProp=Default
   Frame=24   AutoSelect=N.A.   AnalSect=Fsec1   MatProp=Default
   Frame=25   AutoSelect=N.A.   AnalSect=Fsec1   MatProp=Default
   Frame=26   AutoSelect=N.A.   AnalSect=Fsec1   MatProp=Default
   Frame=57   AutoSelect=N.A.   AnalSect=Fsec1   MatProp=Default
   Frame=58   AutoSelect=N.A.   AnalSect=Fsec1   MatProp=Default
   Frame=59   AutoSelect=N.A.   AnalSect=Fsec1   MatProp=Default
   Frame=60   AutoSelect=N.A.   AnalSect=Fsec1   MatProp=Default
   Frame=61   AutoSelect=N.A.   AnalSect=Fsec1   MatProp=Default
   Frame=62   AutoSelect=N.A.   AnalSect=Fsec1   MatProp=Default
   Frame=63   AutoSelect=N.A.   AnalSect=Fsec1   MatProp=Default
   Frame=64   AutoSelect=N.A.   AnalSect=Fsec1   MatProp=Default
   Frame=65   AutoSelect=N.A.   AnalSect=Fsec1   MatProp=Default
   Frame=66   AutoSelect=N.A.   AnalSect=Fsec1   MatProp=Default
   Frame=67   AutoSelect=N.A.   AnalSect=Fsec1   MatProp=Default
   Frame=68   AutoSelect=N.A.   AnalSect=Fsec1   MatProp=Default
   Frame=69   AutoSelect=N.A.   AnalSect=Fsec1   MatProp=Default
   Frame=70   AutoSelect=N.A.   AnalSect=Fsec1   MatProp=Default
   Frame=71   AutoSelect=N.A.   AnalSect=Fsec1   MatProp=Default
# ... 4 like lines cut
 
TABLE:  "FRAME SECTION PROPERTIES 01 - GENERAL"
   SectionName=Fsec1   Material=Concrete   Shape=Rectangular   t3=0.5   t2=0.5   Area=0.25   TorsConst=0.00880208333333333   I33=0.00520833333333333   I22=0.00520833333333333   I23=0   AS2=0.208333333333333   AS3=0.208333333333333 _
        S33=0.0208333333333333   S22=0.0208333333333333   Z33=0.03125   Z22=0.03125   R33=0.144337567297406   R22=0.144337567297406   Color=Red   FromFile=No   AMod=0.7   A2Mod=0.5   A3Mod=0.01   JMod=1   I2Mod=1   I3Mod=1   MMod=1   WMod=1
   SectionName=Fsec2   Material=Steel   Shape="I/Wide Flange"   t3=0.5   t2=0.2   tf=0.016   tw=0.0102   t2b=0.2   tfb=0.016   Area=0.0111736   TorsConst=6.81883553797334E-07   I33=0.000462073880533333   I22=2.13747204453333E-05   I23=0 _
        AS2=0.0051   AS3=0.00533333333333333   S33=0.00184829552213333   S22=0.000213747204453333   Z33=0.0021073112   Z22=0.00033217268   R33=0.203357011032772   R22=0.0437374704059382   Color=Yellow   FromFile=No   AMod=1   A2Mod=1 _
        A3Mod=1   JMod=1   I2Mod=1   I3Mod=1   MMod=1   WMod=1
 
TABLE:  "FRAME SECTION PROPERTIES 02 - CONCRETE COLUMN"
   SectionName=Fsec1   RebarMatL=A615Gr60   RebarMatC=A615Gr60   ReinfConfig=Rectangular   LatReinf=Ties   Cover=0.04   NumBars3Dir=3   NumBars2Dir=3   BarSizeL=#9   BarSizeC=#4   SpacingC=0.15   NumCBars2=3   NumCBars3=3   ReinfType=Design
 
TABLE:  "FRAME SECTION PROPERTIES 13 - TIME DEPENDENT"
   SectionName=Fsec1   TypeSize=Auto   AutoSFSize=0
   SectionName=Fsec2   TypeSize=Auto   AutoSFSize=0
 
TABLE:  "FUNCTION - PLOT FUNCTIONS"
   PlotFunc="Input Energy"   Type=Energy   Component=Input   Mode=All
 
TABLE:  "FUNCTION - POWER SPECTRAL DENSITY - USER"
   Name=UNIFPSD   Frequency=0   Value=1
   Name=UNIFPSD   Frequency=1   Value=1
 
TABLE:  "FUNCTION - RESPONSE SPECTRUM - USER"
   Name=UNIFRS   Period=0   Accel=1   FuncDamp=0.05
   Name=UNIFRS   Period=1   Accel=1
 
TABLE:  "FUNCTION - STEADY STATE - USER"
   Name=UNIFSS   Frequency=0   Value=1
   Name=UNIFSS   Frequency=1   Value=1
 
TABLE:  "FUNCTION - TIME HISTORY - USER"
   Name=RAMPTH   Time=0   Value=0
   Name=RAMPTH   Time=1   Value=1
   Name=RAMPTH   Time=4   Value=1
   Name=UNIFTH   Time=0   Value=1
   Name=UNIFTH   Time=1   Value=1
 
TABLE:  "GROUPS 1 - DEFINITIONS"
   GroupName=ALL   Selection=Yes   SectionCut=Yes   Steel=Yes   Concrete=Yes   Aluminum=Yes   ColdFormed=Yes   Stage=Yes   Bridge=Yes   AutoSeismic=No   AutoWind=No   SelDesSteel=No   SelDesAlum=No   SelDesCold=No   MassWeight=Yes   Color=Red
 
TABLE:  "JOINT COORDINATES"
   Joint=27   CoordSys=GLOBAL   CoordType=Cartesian   XorR=0   Y=0   Z=0   SpecialJt=Yes   GUID=987422f9-35dd-4bdf-93e7-e706e0090dd6
   Joint=28   CoordSys=GLOBAL   CoordType=Cartesian   XorR=0   Y=0   Z=6   SpecialJt=Yes   GUID=987422f9-35dd-4bdf-93e7-e706e0090dd6
   Joint=29   CoordSys=GLOBAL   CoordType=Cartesian   XorR=6   Y=0   Z=9   SpecialJt=Yes   GUID=987422f9-35dd-4bdf-93e7-e706e0090dd6
   Joint=30   CoordSys=GLOBAL   CoordType=Cartesian   XorR=12   Y=0   Z=9   SpecialJt=Yes   GUID=987422f9-35dd-4bdf-93e7-e706e0090dd6
   Joint=31   CoordSys=GLOBAL   CoordType=Cartesian   XorR=18   Y=0   Z=6   SpecialJt=Yes   GUID=987422f9-35dd-4bdf-93e7-e706e0090dd6
   Joint=32   CoordSys=GLOBAL   CoordType=Cartesian   XorR=18   Y=0   Z=0   SpecialJt=Yes   GUID=987422f9-35dd-4bdf-93e7-e706e0090dd6
   Joint=69   CoordSys=GLOBAL   CoordType=Cartesian   XorR=0   Y=4   Z=0   SpecialJt=Yes   GUID=987422f9-35dd-4bdf-93e7-e706e0090dd6
   Joint=70   CoordSys=GLOBAL   CoordType=Cartesian   XorR=0   Y=4   Z=6   SpecialJt=Yes   GUID=987422f9-35dd-4bdf-93e7-e706e0090dd6
   Joint=71   CoordSys=GLOBAL   CoordType=Cartesian   XorR=6   Y=4   Z=9   SpecialJt=Yes   GUID=987422f9-35dd-4bdf-93e7-e706e0090dd6
   Joint=72   CoordSys=GLOBAL   CoordType=Cartesian   XorR=12   Y=4   Z=9   SpecialJt=Yes   GUID=987422f9-35dd-4bdf-93e7-e706e0090dd6
   Joint=73   CoordSys=GLOBAL   CoordType=Cartesian   XorR=18   Y=4   Z=6   SpecialJt=Yes   GUID=987422f9-35dd-4bdf-93e7-e706e0090dd6
   Joint=74   CoordSys=GLOBAL   CoordType=Cartesian   XorR=18   Y=4   Z=0   SpecialJt=Yes   GUID=987422f9-35dd-4bdf-93e7-e706e0090dd6
   Joint=75   CoordSys=GLOBAL   CoordType=Cartesian   XorR=0   Y=8   Z=0   SpecialJt=Yes   GUID=987422f9-35dd-4bdf-93e7-e706e0090dd6
   Joint=76   CoordSys=GLOBAL   CoordType=Cartesian   XorR=0   Y=8   Z=6   SpecialJt=Yes   GUID=987422f9-35dd-4bdf-93e7-e706e0090dd6
   Joint=77   CoordSys=GLOBAL   CoordType=Cartesian   XorR=6   Y=8   Z=9   SpecialJt=Yes   GUID=987422f9-35dd-4bdf-93e7-e706e0090dd6
   Joint=78   CoordSys=GLOBAL   CoordType=Cartesian   XorR=12   Y=8   Z=9   SpecialJt=Yes   GUID=987422f9-35dd-4bdf-93e7-e706e0090dd6
   Joint=79   CoordSys=GLOBAL   CoordType=Cartesian   XorR=18   Y=8   Z=6   SpecialJt=Yes   GUID=987422f9-35dd-4bdf-93e7-e706e0090dd6
   Joint=80   CoordSys=GLOBAL   CoordType=Cartesian   XorR=18   Y=8   Z=0   SpecialJt=Yes   GUID=987422f9-35dd-4bdf-93e7-e706e0090dd6
   Joint=81   CoordSys=GLOBAL   CoordType=Cartesian   XorR=0   Y=12   Z=0   SpecialJt=Yes   GUID=987422f9-35dd-4bdf-93e7-e706e0090dd6
   Joint=82   CoordSys=GLOBAL   CoordType=Cartesian   XorR=0   Y=12   Z=6   SpecialJt=Yes   GUID=987422f9-35dd-4bdf-93e7-e706e0090dd6
# ... 148 like lines cut
 
TABLE:  "JOINT PATTERN DEFINITIONS"
   Pattern=Default
 
TABLE:  "JOINT RESTRAINT ASSIGNMENTS"
   Joint=27   U1=Yes   U2=Yes   U3=Yes   R1=Yes   R2=Yes   R3=Yes
   Joint=32   U1=Yes   U2=Yes   U3=Yes   R1=Yes   R2=Yes   R3=Yes
   Joint=69   U1=Yes   U2=Yes   U3=Yes   R1=Yes   R2=Yes   R3=Yes
   Joint=74   U1=Yes   U2=Yes   U3=Yes   R1=Yes   R2=Yes   R3=Yes
   Joint=75   U1=Yes   U2=Yes   U3=Yes   R1=Yes   R2=Yes   R3=Yes
   Joint=80   U1=Yes   U2=Yes   U3=Yes   R1=Yes   R2=Yes   R3=Yes
   Joint=81   U1=Yes   U2=Yes   U3=Yes   R1=Yes   R2=Yes   R3=Yes
   Joint=86   U1=Yes   U2=Yes   U3=Yes   R1=Yes   R2=Yes   R3=Yes
 
TABLE:  "LOAD CASE DEFINITIONS"
   Case=p1   Type=LinStatic   InitialCond=Zero   DesTypeOpt="Prog Det"   DesignType=Dead   DesActOpt="Prog Det"   DesignAct=Non-Composite   AutoType=None   RunCase=Yes
   Case=p2   Type=LinStatic   InitialCond=Zero   DesTypeOpt="Prog Det"   DesignType=Live   DesActOpt="Prog Det"   DesignAct="Short-Term Composite"   AutoType=None   RunCase=Yes
 
TABLE:  "LOAD PATTERN DEFINITIONS"
   LoadPat=p1   DesignType=Dead   SelfWtMult=1
   LoadPat=p2   DesignType=Live   SelfWtMult=0
 
TABLE:  "MASS SOURCE"
   MassSource=MSSSRC1   Elements=Yes   Masses=Yes   Loads=No   IsDefault=Yes
 
TABLE:  "MATERIAL PROPERTIES 01 - GENERAL"
   Material=4000Psi   Type=Concrete   SymType=Isotropic   TempDepend=No   Color=Red   Notes="Customary f'c 4000 psi 26-Mar-17 2:27:10 AM"
   Material=A615Gr60   Type=Rebar   SymType=Uniaxial   TempDepend=No   Color=Magenta   Notes="ASTM A615 Grade 60 26-Mar-17 2:27:10 AM"
   Material=A992Fy50   Type=Steel   SymType=Isotropic   TempDepend=No   Color=Cyan   Notes="ASTM A992 Grade 50 26-Mar-17 2:27:10 AM"
   Material=Concrete   Type=Concrete   SymType=Isotropic   TempDepend=No   Color=Green
   Material=Steel   Type=Steel   SymType=Isotropic   TempDepend=No   Color=Cyan
 
TABLE:  "MATERIAL PROPERTIES 02 - BASIC MECHANICAL PROPERTIES"
   Material=4000Psi   UnitWeight=23.5631216161854   UnitMass=2.40276960558926   E1=24855578.0600518   G12=10356490.8583549   U12=0.2   A1=9.89999952793124E-06
   Material=A615Gr60   UnitWeight=76.9728639422648   UnitMass=7.84904737995992   E1=199947978.795958   A1=1.16999994421006E-05
   Material=A992Fy50   UnitWeight=76.9728639422648   UnitMass=7.84904737995992   E1=199947978.795958   G12=76903068.767676   U12=0.3   A1=1.16999994421006E-05
   Material=Concrete   UnitWeight=25   UnitMass=2.54929048055605   E1=4400000   G12=1833333.33333333   U12=0.2   A1=5E-09
   Material=Steel   UnitWeight=78.5   UnitMass=8.004772108946   E1=2100000   G12=807692.307692308   U12=0.3   A1=5E-09
 
TABLE:  "MATERIAL PROPERTIES 03A - STEEL DATA"
   Material=A992Fy50   Fy=344737.894475789   Fu=448159.262818526   EffFy=379211.683923368   EffFu=492975.189100378   SSCurveOpt=Simple   SSHysType=Kinematic   SHard=0.015   SMax=0.11   SRup=0.17   FinalSlope=-0.1
   Material=Steel   Fy=240000   Fu=360000   EffFy=240000   EffFu=360000   SSCurveOpt=Simple   SSHysType=Kinematic   SHard=0.015   SMax=0.11   SRup=0.17   FinalSlope=-0.1
 
TABLE:  "MATERIAL PROPERTIES 03B - CONCRETE DATA"
   Material=4000Psi   Fc=27579.0315580631   eFc=27579.0315580631   LtWtConc=No   SSCurveOpt=Mander   SSHysType=Takeda   SFc=0.00221914   SCap=0.005   FinalSlope=-0.1   FAngle=0   DAngle=0
   Material=Concrete   Fc=30000   eFc=30000   LtWtConc=No   SSCurveOpt=Mander   SSHysType=Takeda   SFc=0.0022   SCap=0.0052   FinalSlope=-0.1   FAngle=0   DAngle=0
 
TABLE:  "MATERIAL PROPERTIES 03E - REBAR DATA"
   Material=A615Gr60   Fy=413685.473370947   Fu=620528.21005642   EffFy=455054.020708041   EffFu=682581.031062062   SSCurveOpt=Simple   SSHysType=Kinematic   SHard=0.01   SCap=0.09   FinalSlope=-0.1   UseCTDef=No
 
TABLE:  "MATERIAL PROPERTIES 06 - DAMPING PARAMETERS"
   Material=4000Psi   ModalRatio=0   VisMass=0   VisStiff=0   HysMass=0   HysStiff=0
   Material=A615Gr60   ModalRatio=0   VisMass=0   VisStiff=0   HysMass=0   HysStiff=0
   Material=A992Fy50   ModalRatio=0   VisMass=0   VisStiff=0   HysMass=0   HysStiff=0
   Material=Concrete   ModalRatio=0   VisMass=0   VisStiff=0   HysMass=0   HysStiff=0
   Material=Steel   ModalRatio=0   VisMass=0   VisStiff=0   HysMass=0   HysStiff=0
 
TABLE:  "OPTIONS - COLORS - DISPLAY"
   DeviceType=Screen   Points=Blue   LinesFrame=Blue   LinesFrmDL=Blue   LinesCable=Green   LinesTendon=Green   SpringLinks=Green   Restraints=Green   Releases=Green   Axes=Cyan   Text=Black   ShadowLines=Gray8Dark   GuideLines=Gray8Dark _
        Highlight=Red   Selection=10504778   AreaFillBot=Red   AreaFillTop=16744703   AreaFillSd=Red   AreaEdge=DarkRed   SolidF1=Red   SolidF2=Blue   SolidF3=Green   SolidF4=Yellow   SolidF5=White   SolidF6=Cyan   SolidEdge=DarkRed _
        Floor=Gray4   Background=White   BGLowLeft=White   BGLowRight=White   BGUpRight=White   Darkness=0.5
   DeviceType=Printer   Points=Gray8Dark   LinesFrame=Black   LinesFrmDL=Gray4   LinesCable=Black   LinesTendon=Black   SpringLinks=Gray8Dark   Restraints=Gray8Dark   Releases=Gray4   Axes=Black   Text=Black   ShadowLines=Gray4 _
        GuideLines=Gray4   Highlight=Black   Selection=Black   AreaFillBot=Gray4   AreaFillTop=Gray8Dark   AreaFillSd=Gray4   AreaEdge=Black   SolidF1=Gray1Light   SolidF2=Gray2   SolidF3=Gray3   SolidF4=Gray4   SolidF5=Gray5 _
        SolidF6=Gray6   SolidEdge=Black   Floor=Gray4   Background=White   BGLowLeft=White   BGLowRight=White   BGUpRight=White   Darkness=0.5
   DeviceType="Color Printer"   Points=Blue   LinesFrame=Blue   LinesFrmDL=Blue   LinesCable=Green   LinesTendon=Green   SpringLinks=Green   Restraints=Green   Releases=Green   Axes=Cyan   Text=Black   ShadowLines=Gray8Dark _
        GuideLines=Gray8Dark   Highlight=Red   Selection=10504778   AreaFillBot=Red   AreaFillTop=16744703   AreaFillSd=Red   AreaEdge=DarkRed   SolidF1=Red   SolidF2=Blue   SolidF3=Green   SolidF4=Yellow   SolidF5=White   SolidF6=Cyan _
        SolidEdge=DarkRed   Floor=Gray4   Background=White   BGLowLeft=White   BGLowRight=White   BGUpRight=White   Darkness=0.5
 
TABLE:  "OPTIONS - COLORS - OUTPUT"
   DeviceType=Screen   Contour1=13107400   Contour2=6553828   Contour3=Red   Contour4=16639   Contour5=Orange   Contour6=43775   Contour7=54527   Contour8=Yellow   Contour9=65408   Contour10=Green   Contour11=8453888   Contour12=Cyan _
        Contour13=16755200   Contour14=16733440   Contour15=Blue   Transpare=0.5   Ratio1=Cyan   Ratio2=Green   Ratio3=Yellow   Ratio4=Orange   Ratio5=Red   RatioNotD=Gray4   RatioNotC=Red   RatioVal1=0.5   RatioVal2=0.7   RatioVal3=0.9 _
        RatioVal4=1   DFillPos=Blue   DFillNeg=Red   DFillRPos=Green   DFillRNeg=Green
   DeviceType=Printer   Contour1=Black   Contour2=3158064   Contour3=4210752   Contour4=5263440   Contour5=6316128   Contour6=7368816   Contour7=Gray8Dark   Contour8=Gray7   Contour9=Gray6   Contour10=Gray5   Contour11=Gray4 _
        Contour12=Gray3   Contour13=Gray2   Contour14=Gray1Light   Contour15=White   Transpare=0   Ratio1=Gray2   Ratio2=Gray4   Ratio3=Gray8Dark   Ratio4=4210752   Ratio5=Black   RatioNotD=Gray4   RatioNotC=Black   RatioVal1=0.5 _
        RatioVal2=0.7   RatioVal3=0.9   RatioVal4=1   DFillPos=Gray8Dark   DFillNeg=Gray8Dark   DFillRPos=4210752   DFillRNeg=4210752
   DeviceType="Color Printer"   Contour1=13107400   Contour2=6553828   Contour3=Red   Contour4=16639   Contour5=Orange   Contour6=43775   Contour7=54527   Contour8=Yellow   Contour9=65408   Contour10=Green   Contour11=8453888 _
        Contour12=Cyan   Contour13=16755200   Contour14=16733440   Contour15=Blue   Transpare=0   Ratio1=Cyan   Ratio2=Green   Ratio3=Yellow   Ratio4=Orange   Ratio5=Red   RatioNotD=Gray4   RatioNotC=Red   RatioVal1=0.5   RatioVal2=0.7 _
        RatioVal3=0.9   RatioVal4=1   DFillPos=Blue   DFillNeg=Red   DFillRPos=Green   DFillRNeg=Green
 
TABLE:  "PREFERENCES - ALUMINUM DESIGN - AA-ASD 2000"
   THDesign=Envelopes   FrameType="Moment Frame"   SRatioLimit=1   MaxIter=1   LatFact=1.33333333333333   UseLatFact=No   Bridge=No
 
TABLE:  "PREFERENCES - COLD FORMED DESIGN - AISI-ASD96"
   THDesign=Envelopes   FrameType="Braced Frame"   SRatioLimit=1   MaxIter=1   OmegaBS=1.67   OmegaBUS=1.67   OmegaBLTB=1.67   OmegaVS=1.67   OmegaVNS=1.5   OmegaT=1.67   OmegaC=1.8
 
TABLE:  "PREFERENCES - CONCRETE DESIGN - ACI 318-14"
   THDesign=Envelopes   NumCurves=24   NumPoints=11   MinEccen=Yes   PatLLF=0.75   UFLimit=0.95   SeisCat=D   Rho=1   Sds=0.5   PhiT=0.9   PhiCTied=0.65   PhiCSpiral=0.75   PhiV=0.75   PhiVSeismic=0.6   PhiVJoint=0.85
 
TABLE:  "PREFERENCES - DIMENSIONAL"
   MergeTol=0.001   FineGrid=0.25   Nudge=0.25   SelectTol=3   SnapTol=12   SLineThick=2   PLineThick=4   MaxFont=8   MinFont=3   AutoZoom=10   ShrinkFact=70   TextFileLen=240
 
TABLE:  "PREFERENCES - STEEL DESIGN - AISC 360-10"
   THDesign=Envelopes   FrameType=SMF   PatLLF=0.75   SRatioLimit=0.95   MaxIter=1   SDC=D   SeisCode=Yes   SeisLoad=Yes   ImpFactor=1   SystemRho=1   SystemSds=0.5   SystemR=8   SystemCd=5.5   Omega0=3   Provision=LRFD _
        AMethod="Direct Analysis"   SOMethod="General 2nd Order"   SRMethod="Tau-b Fixed"   NLCoeff=0.002   PhiB=0.9   PhiC=0.9   PhiTY=0.9   PhiTF=0.75   PhiV=0.9   PhiVRolledI=1   PhiVT=0.9   PlugWeld=Yes   HSSWelding=ERW   HSSReduceT=No _
        CheckDefl=No   DLRat=120   SDLAndLLRat=120   LLRat=360   TotalRat=240   NetRat=240
 
TABLE:  "PROGRAM CONTROL"
   ProgramName=SAP2000   Version=18.2.0   CurrUnits="KN, m, C"   SteelCode="AISC 360-10"   ConcCode="ACI 318-14"   AlumCode="AA-ASD 2000"   ColdCode=AISI-ASD96   RegenHinge=Yes
 
TABLE:  "PROJECT INFORMATION"
   Item="Company Name"
   Item="Client Name"
   Item="Project Name"
   Item="Project Number"
   Item="Model Name"
   Item="Model Description"
   Item="Revision Number"
   Item="Frame Type"
   Item=Engineer
   Item=Checker
   Item=Supervisor
   Item="Issue Code"
   Item="Design Code"
 
TABLE:  "REBAR SIZES"
   RebarID=#2   Area=3.2258E-05   Diameter=0.00635
   RebarID=#3   Area=7.09675996154547E-05   Diameter=0.009525
   RebarID=#4   Area=0.000129032001922727   Diameter=0.0127
   RebarID=#5   Area=0.000199999601538181   Diameter=0.015875
   RebarID=#6   Area=0.000283870398461819   Diameter=0.01905
   RebarID=#7   Area=0.000387096015381813   Diameter=0.022225
   RebarID=#8   Area=0.000509676413843632   Diameter=0.0254
   RebarID=#9   Area=0.00064516   Diameter=0.0286512005329132
   RebarID=#10   Area=0.00081935318769455   Diameter=0.0322579995155334
   RebarID=#11   Area=0.00100644956308365   Diameter=0.0358139991521835
   RebarID=#14   Area=0.00145161   Diameter=0.0430021989583969
   RebarID=#18   Area=0.00258064   Diameter=0.0573277992248535
   RebarID=10M   Area=0.000100000002655387   Diameter=0.011300000667572
   RebarID=15M   Area=0.000200000005310774   Diameter=0.0159999999403954
   RebarID=20M   Area=0.000300000017579794   Diameter=0.0194999997854233
   RebarID=25M   Area=0.000500000022890568   Diameter=0.0252000016093254
   RebarID=30M   Area=0.000700000008974075   Diameter=0.0299000008821487
   RebarID=35M   Area=0.00100000004578114   Diameter=0.0357000011444092
   RebarID=45M   Area=0.00150000010712624   Diameter=0.0437000003576279
   RebarID=55M   Area=0.00250000007599831   Diameter=0.0564000033855438
   RebarID=6d   Area=2.83000004149973E-05   Diameter=0.006000000166893
   RebarID=8d   Area=5.02999995571375E-05   Diameter=0.00799999997019768
   RebarID=10d   Area=7.85000013634562E-05   Diameter=0.00999999977350235
   RebarID=12d   Area=0.000113000009249449   Diameter=0.012000000333786
   RebarID=14d   Area=0.000154000010818839   Diameter=0.0140000008940697
   RebarID=16d   Area=0.000201000015431643   Diameter=0.0159999999403954
   RebarID=20d   Area=0.000314000005453825   Diameter=0.0199999995470047
   RebarID=25d   Area=0.000491000008711815   Diameter=0.0250000001907349
   RebarID=26d   Area=0.000531000029001236   Diameter=0.0259999997138977
   RebarID=28d   Area=0.000616000043275356   Diameter=0.0280000017881393
   RebarID=N12   Area=0.000113000009249449   Diameter=0.012000000333786
   RebarID=N16   Area=0.000201000015431643   Diameter=0.0159999999403954
   RebarID=N20   Area=0.000314000005453825   Diameter=0.0199999995470047
   RebarID=N24   Area=0.000452000036997795   Diameter=0.024000000667572
   RebarID=N28   Area=0.000616000043275356   Diameter=0.0280000017881393
   RebarID=N32   Area=0.00080400006172657   Diameter=0.0319999998807907
   RebarID=N36   Area=0.00102000001747131   Diameter=0.036000001001358
 
END TABLE DATA
