File D:\ITI Study Stuff\Graduation Project\SAC\SAC Projects\TestModel\SAP Model\TestModel.$2k was saved on m/d/yy at h:mm:ss
 
TABLE:  "ACTIVE DEGREES OF FREEDOM"
   UX=Yes   UY=Yes   UZ=Yes   RX=Yes   RY=Yes   RZ=Yes
 
TABLE:  "ANALYSIS OPTIONS"
   Solver=Advanced   SolverProc=Auto   Force32Bit=No   StiffCase=None   GeomMod=None
 
TABLE:  "AUTO WAVE 3 - WAVE CHARACTERISTICS - GENERAL"
   WaveChar=Default   WaveType="From Theory"   KinFactor=1   SWaterDepth=45   WaveHeight=18   WavePeriod=12   WaveTheory=Linear
 
TABLE:  "CASE - STATIC 1 - LOAD ASSIGNMENTS"
   Case=p1   LoadType="Load pattern"   LoadName=p1   LoadSF=1
   Case=p2   LoadType="Load pattern"   LoadName=p2   LoadSF=1
   Case=p3   LoadType="Load pattern"   LoadName=p3   LoadSF=1
 
TABLE:  "COMBINATION DEFINITIONS"
   ComboName=c1   ComboType="Linear Add"   AutoDesign=No   CaseName=p1   ScaleFactor=0.9   SteelDesign=None   ConcDesign=None   AlumDesign=None   ColdDesign=None   GUID=be5b50ef-cf30-4f0f-83f2-de80a0ed62f3
 
TABLE:  "CONNECTIVITY - FRAME"
   Frame=1   JointI=1   JointJ=2   IsCurved=No   GUID=a4d0a3aa-5399-404a-a86a-6f530999672e
   Frame=2   JointI=3   JointJ=2   IsCurved=No   GUID=e9ff8407-f3fa-4dbe-9b9d-c218cd0f103f
   Frame=3   JointI=4   JointJ=1   IsCurved=No   GUID=e39205ac-e4a6-4e1b-9f3f-2435680d1cc1
   Frame=4   JointI=5   JointJ=6   IsCurved=No   GUID=b264bd6a-8204-443a-9cfc-dcdbf3dd662e
   Frame=5   JointI=7   JointJ=6   IsCurved=No   GUID=1da0efd2-986c-46f3-bafa-850be28b484f
   Frame=6   JointI=8   JointJ=5   IsCurved=No   GUID=52db2454-a593-45c0-b0bb-96e8bead3944
   Frame=7   JointI=9   JointJ=10   IsCurved=No   GUID=36a3dedb-3f3a-4488-96e6-a631d158cc58
   Frame=8   JointI=11   JointJ=10   IsCurved=No   GUID=47e13ab5-2b50-49f7-939e-8ac3b771a682
   Frame=9   JointI=12   JointJ=9   IsCurved=No   GUID=e2d0d721-5c46-4ce2-8c18-4b195358c72a
   Frame=10   JointI=13   JointJ=14   IsCurved=No   GUID=fa4b2bb4-d278-40d8-a68b-6427ef02cd15
   Frame=11   JointI=15   JointJ=14   IsCurved=No   GUID=5c7b9fce-df03-485c-97e3-8a77b862d411
   Frame=12   JointI=16   JointJ=13   IsCurved=No   GUID=afe989f3-0085-4cf0-8686-efb6ea3cdcee
   Frame=13   JointI=1   JointJ=13   IsCurved=No   GUID=b321f6ae-e6b1-4e21-92bb-65d72c417e60
   Frame=14   JointI=2   JointJ=14   IsCurved=No   GUID=e753f00f-52a5-4947-866e-ac0aadc79098
   Frame=16   JointI=13   JointJ=17   IsCurved=No   GUID=3ad1ce6f-cb6d-4f5b-9421-aac13e833810
   Frame=17   JointI=18   JointJ=17   IsCurved=No   GUID=ebe23050-a38e-4b79-8625-23b1b751ab19
   Frame=18   JointI=18   JointJ=10   IsCurved=No   GUID=7c6c3ac3-6851-4039-8f7b-9190ffa3a9b7
   Frame=19   JointI=19   JointJ=9   IsCurved=No   GUID=da91fa2c-8180-4e37-8d85-d2f0159f7c28
   Frame=20   JointI=19   JointJ=20   IsCurved=No   GUID=131c56fd-ea6c-415b-a75a-37ad0d67a7ab
   Frame=21   JointI=20   JointJ=14   IsCurved=No   GUID=384f8fa4-3db7-4862-be0a-2dce0dbfeb06
   Frame=22   JointI=5   JointJ=21   IsCurved=No   GUID=386b238e-7019-49bc-9766-704b28c3f696
   Frame=23   JointI=21   JointJ=22   IsCurved=No   GUID=84c84bd9-62a9-4152-9a8e-c349574e41f6
   Frame=24   JointI=22   JointJ=2   IsCurved=No   GUID=721cd28e-317b-4a43-88e2-639d4eeeb32d
   Frame=25   JointI=6   JointJ=23   IsCurved=No   GUID=03a65da3-359a-497c-9048-449ff4bc637d
   Frame=26   JointI=23   JointJ=24   IsCurved=No   GUID=7f66f857-157d-454a-bf48-0c1532a25e74
   Frame=27   JointI=24   JointJ=1   IsCurved=No   GUID=706e2040-adca-4df2-a978-ab7fd539f19c
   Frame=28   JointI=2   JointJ=25   IsCurved=No   GUID=37dd3d28-9ad7-4946-ae57-bfba89259c4c
   Frame=29   JointI=6   JointJ=26   IsCurved=No   GUID=22c6ea68-23d6-46b8-8188-19db99a1a2e1
   Frame=30   JointI=27   JointJ=10   IsCurved=No   GUID=8a3b9019-8b02-42ae-aaeb-7bd2ce4fbfce
   Frame=31   JointI=28   JointJ=10   IsCurved=No   GUID=ae955b06-5ca2-4ccb-96b6-6a9dc3c2025f
   Frame=32   JointI=14   JointJ=27   IsCurved=No   GUID=7933791e-9f50-464c-a23a-17f5b386207e
   Frame=33   JointI=1   JointJ=29   IsCurved=No   GUID=662a8a9d-851a-42b9-ac50-49004fe5bd62
   Frame=34   JointI=5   JointJ=30   IsCurved=No   GUID=a5d0f815-9c15-470f-a5b9-a7313a15bdfa
   Frame=35   JointI=13   JointJ=31   IsCurved=No   GUID=f9d07e03-b2b1-4e53-9b36-98dbf04392af
   Frame=36   JointI=9   JointJ=32   IsCurved=No   GUID=57505f6a-255c-4d2d-ba87-e2d873334614
 
TABLE:  "COORDINATE SYSTEMS"
   Name=GLOBAL   Type=Cartesian   X=0   Y=0   Z=0   AboutZ=0   AboutY=0   AboutX=0
 
TABLE:  "DATABASE DOCUMENTATION"
 
TABLE:  "DATABASE FORMAT TYPES"
   UnitsCurr=Yes   OverrideE=No
 
TABLE:  "FRAME AUTO MESH ASSIGNMENTS"
   Frame=1   AutoMesh=Yes   AtJoints=Yes   AtFrames=No   NumSegments=0   MaxLength=0   MaxDegrees=0
   Frame=2   AutoMesh=Yes   AtJoints=Yes   AtFrames=No   NumSegments=0   MaxLength=0   MaxDegrees=0
   Frame=3   AutoMesh=Yes   AtJoints=Yes   AtFrames=No   NumSegments=0   MaxLength=0   MaxDegrees=0
   Frame=4   AutoMesh=Yes   AtJoints=Yes   AtFrames=No   NumSegments=0   MaxLength=0   MaxDegrees=0
   Frame=5   AutoMesh=Yes   AtJoints=Yes   AtFrames=No   NumSegments=0   MaxLength=0   MaxDegrees=0
   Frame=6   AutoMesh=Yes   AtJoints=Yes   AtFrames=No   NumSegments=0   MaxLength=0   MaxDegrees=0
   Frame=7   AutoMesh=Yes   AtJoints=Yes   AtFrames=No   NumSegments=0   MaxLength=0   MaxDegrees=0
   Frame=8   AutoMesh=Yes   AtJoints=Yes   AtFrames=No   NumSegments=0   MaxLength=0   MaxDegrees=0
   Frame=9   AutoMesh=Yes   AtJoints=Yes   AtFrames=No   NumSegments=0   MaxLength=0   MaxDegrees=0
   Frame=10   AutoMesh=Yes   AtJoints=Yes   AtFrames=No   NumSegments=0   MaxLength=0   MaxDegrees=0
   Frame=11   AutoMesh=Yes   AtJoints=Yes   AtFrames=No   NumSegments=0   MaxLength=0   MaxDegrees=0
   Frame=12   AutoMesh=Yes   AtJoints=Yes   AtFrames=No   NumSegments=0   MaxLength=0   MaxDegrees=0
   Frame=13   AutoMesh=Yes   AtJoints=Yes   AtFrames=No   NumSegments=0   MaxLength=0   MaxDegrees=0
   Frame=14   AutoMesh=Yes   AtJoints=Yes   AtFrames=No   NumSegments=0   MaxLength=0   MaxDegrees=0
   Frame=16   AutoMesh=Yes   AtJoints=Yes   AtFrames=No   NumSegments=0   MaxLength=0   MaxDegrees=0
   Frame=17   AutoMesh=Yes   AtJoints=Yes   AtFrames=No   NumSegments=0   MaxLength=0   MaxDegrees=0
   Frame=18   AutoMesh=Yes   AtJoints=Yes   AtFrames=No   NumSegments=0   MaxLength=0   MaxDegrees=0
   Frame=19   AutoMesh=Yes   AtJoints=Yes   AtFrames=No   NumSegments=0   MaxLength=0   MaxDegrees=0
   Frame=20   AutoMesh=Yes   AtJoints=Yes   AtFrames=No   NumSegments=0   MaxLength=0   MaxDegrees=0
   Frame=21   AutoMesh=Yes   AtJoints=Yes   AtFrames=No   NumSegments=0   MaxLength=0   MaxDegrees=0
# ... 15 like lines cut
 
TABLE:  "FRAME DESIGN PROCEDURES"
   Frame=1   DesignProc="From Material"
   Frame=2   DesignProc="From Material"
   Frame=3   DesignProc="From Material"
   Frame=4   DesignProc="From Material"
   Frame=5   DesignProc="From Material"
   Frame=6   DesignProc="From Material"
   Frame=7   DesignProc="From Material"
   Frame=8   DesignProc="From Material"
   Frame=9   DesignProc="From Material"
   Frame=10   DesignProc="From Material"
   Frame=11   DesignProc="From Material"
   Frame=12   DesignProc="From Material"
   Frame=13   DesignProc="From Material"
   Frame=14   DesignProc="From Material"
   Frame=16   DesignProc="From Material"
   Frame=17   DesignProc="From Material"
   Frame=18   DesignProc="From Material"
   Frame=19   DesignProc="From Material"
   Frame=20   DesignProc="From Material"
   Frame=21   DesignProc="From Material"
# ... 15 like lines cut
 
TABLE:  "FRAME LOADS - DISTRIBUTED"
   Frame=1   LoadPat=p1   CoordSys=GLOBAL   Type=Force   Dir=Z   DistType=RelDist   RelDistA=0   RelDistB=1   AbsDistA=0   AbsDistB=12   FOverLA=-20   FOverLB=-10   GUID=73264079-b632-4e07-acaf-4096869427f5
   Frame=4   LoadPat=p1   CoordSys=GLOBAL   Type=Force   Dir=Z   DistType=RelDist   RelDistA=0   RelDistB=1   AbsDistA=0   AbsDistB=12   FOverLA=-20   FOverLB=-10   GUID=526fb407-9f12-4a06-8759-14d8f352e947
   Frame=7   LoadPat=p1   CoordSys=GLOBAL   Type=Force   Dir=Z   DistType=RelDist   RelDistA=0   RelDistB=1   AbsDistA=0   AbsDistB=12   FOverLA=-20   FOverLB=-10   GUID=dda153e5-0730-4feb-aedb-11d943eeac62
   Frame=10   LoadPat=p1   CoordSys=GLOBAL   Type=Force   Dir=Z   DistType=RelDist   RelDistA=0   RelDistB=1   AbsDistA=0   AbsDistB=12   FOverLA=-20   FOverLB=-10   GUID=59df0b3c-dd82-41ef-ac3b-d5cb6bd8ee46
 
TABLE:  "FRAME LOAD TRANSFER OPTIONS"
   Frame=1   Transfer=Yes
   Frame=2   Transfer=Yes
   Frame=3   Transfer=Yes
   Frame=4   Transfer=Yes
   Frame=5   Transfer=Yes
   Frame=6   Transfer=Yes
   Frame=7   Transfer=Yes
   Frame=8   Transfer=Yes
   Frame=9   Transfer=Yes
   Frame=10   Transfer=Yes
   Frame=11   Transfer=Yes
   Frame=12   Transfer=Yes
   Frame=13   Transfer=Yes
   Frame=14   Transfer=Yes
   Frame=16   Transfer=Yes
   Frame=17   Transfer=Yes
   Frame=18   Transfer=Yes
   Frame=19   Transfer=Yes
   Frame=20   Transfer=Yes
   Frame=21   Transfer=Yes
# ... 15 like lines cut
 
TABLE:  "FRAME LOCAL AXES ASSIGNMENTS 1 - TYPICAL"
   Frame=2   Angle=90
   Frame=3   Angle=90
   Frame=5   Angle=90
   Frame=6   Angle=90
   Frame=8   Angle=90
   Frame=9   Angle=90
   Frame=11   Angle=90
   Frame=12   Angle=90
 
TABLE:  "FRAME OUTPUT STATION ASSIGNMENTS"
   Frame=1   StationType=MinNumSta   MinNumSta=24   AddAtElmInt=Yes   AddAtPtLoad=Yes
   Frame=2   StationType=MinNumSta   MinNumSta=18   AddAtElmInt=Yes   AddAtPtLoad=Yes
   Frame=3   StationType=MinNumSta   MinNumSta=18   AddAtElmInt=Yes   AddAtPtLoad=Yes
   Frame=4   StationType=MinNumSta   MinNumSta=24   AddAtElmInt=Yes   AddAtPtLoad=Yes
   Frame=5   StationType=MinNumSta   MinNumSta=18   AddAtElmInt=Yes   AddAtPtLoad=Yes
   Frame=6   StationType=MinNumSta   MinNumSta=18   AddAtElmInt=Yes   AddAtPtLoad=Yes
   Frame=7   StationType=MinNumSta   MinNumSta=24   AddAtElmInt=Yes   AddAtPtLoad=Yes
   Frame=8   StationType=MinNumSta   MinNumSta=18   AddAtElmInt=Yes   AddAtPtLoad=Yes
   Frame=9   StationType=MinNumSta   MinNumSta=18   AddAtElmInt=Yes   AddAtPtLoad=Yes
   Frame=10   StationType=MinNumSta   MinNumSta=24   AddAtElmInt=Yes   AddAtPtLoad=Yes
   Frame=11   StationType=MinNumSta   MinNumSta=18   AddAtElmInt=Yes   AddAtPtLoad=Yes
   Frame=12   StationType=MinNumSta   MinNumSta=18   AddAtElmInt=Yes   AddAtPtLoad=Yes
   Frame=13   StationType=MinNumSta   MinNumSta=36   AddAtElmInt=Yes   AddAtPtLoad=Yes
   Frame=14   StationType=MinNumSta   MinNumSta=36   AddAtElmInt=Yes   AddAtPtLoad=Yes
   Frame=16   StationType=MinNumSta   MinNumSta=14   AddAtElmInt=Yes   AddAtPtLoad=Yes
   Frame=17   StationType=MinNumSta   MinNumSta=14   AddAtElmInt=Yes   AddAtPtLoad=Yes
   Frame=18   StationType=MinNumSta   MinNumSta=14   AddAtElmInt=Yes   AddAtPtLoad=Yes
   Frame=19   StationType=MinNumSta   MinNumSta=14   AddAtElmInt=Yes   AddAtPtLoad=Yes
   Frame=20   StationType=MinNumSta   MinNumSta=14   AddAtElmInt=Yes   AddAtPtLoad=Yes
   Frame=21   StationType=MinNumSta   MinNumSta=14   AddAtElmInt=Yes   AddAtPtLoad=Yes
# ... 15 like lines cut
 
TABLE:  "FRAME SECTION ASSIGNMENTS"
   Frame=1   AutoSelect=N.A.   AnalSect="IPE 500"   MatProp=Default
   Frame=2   AutoSelect=N.A.   AnalSect="IPE 500"   MatProp=Default
   Frame=3   AutoSelect=N.A.   AnalSect="IPE 500"   MatProp=Default
   Frame=4   AutoSelect=N.A.   AnalSect="IPE 500"   MatProp=Default
   Frame=5   AutoSelect=N.A.   AnalSect="IPE 500"   MatProp=Default
   Frame=6   AutoSelect=N.A.   AnalSect="IPE 500"   MatProp=Default
   Frame=7   AutoSelect=N.A.   AnalSect="IPE 500"   MatProp=Default
   Frame=8   AutoSelect=N.A.   AnalSect="IPE 500"   MatProp=Default
   Frame=9   AutoSelect=N.A.   AnalSect="IPE 500"   MatProp=Default
   Frame=10   AutoSelect=N.A.   AnalSect="IPE 500"   MatProp=Default
   Frame=11   AutoSelect=N.A.   AnalSect="IPE 500"   MatProp=Default
   Frame=12   AutoSelect=N.A.   AnalSect="IPE 500"   MatProp=Default
   Frame=13   AutoSelect=N.A.   AnalSect="IPE 500"   MatProp=Default
   Frame=14   AutoSelect=N.A.   AnalSect="IPE 500"   MatProp=Default
   Frame=16   AutoSelect=N.A.   AnalSect="T 66"   MatProp=Default
   Frame=17   AutoSelect=N.A.   AnalSect="T 66"   MatProp=Default
   Frame=18   AutoSelect=N.A.   AnalSect="T 66"   MatProp=Default
   Frame=19   AutoSelect=N.A.   AnalSect="T 66"   MatProp=Default
   Frame=20   AutoSelect=N.A.   AnalSect="T 66"   MatProp=Default
   Frame=21   AutoSelect=N.A.   AnalSect="T 66"   MatProp=Default
   Frame=22   AutoSelect=N.A.   AnalSect="T 66"   MatProp=Default
   Frame=23   AutoSelect=N.A.   AnalSect="T 66"   MatProp=Default
   Frame=24   AutoSelect=N.A.   AnalSect="T 66"   MatProp=Default
   Frame=25   AutoSelect=N.A.   AnalSect="T 66"   MatProp=Default
   Frame=26   AutoSelect=N.A.   AnalSect="T 66"   MatProp=Default
   Frame=27   AutoSelect=N.A.   AnalSect="T 66"   MatProp=Default
   Frame=28   AutoSelect=N.A.   AnalSect="T 66"   MatProp=Default
   Frame=29   AutoSelect=N.A.   AnalSect="T 66"   MatProp=Default
   Frame=30   AutoSelect=N.A.   AnalSect="T 66"   MatProp=Default
   Frame=31   AutoSelect=N.A.   AnalSect="T 66"   MatProp=Default
   Frame=32   AutoSelect=N.A.   AnalSect="T 66"   MatProp=Default
   Frame=33   AutoSelect=N.A.   AnalSect="T 66"   MatProp=Default
   Frame=34   AutoSelect=N.A.   AnalSect="T 66"   MatProp=Default
   Frame=35   AutoSelect=N.A.   AnalSect="T 66"   MatProp=Default
   Frame=36   AutoSelect=N.A.   AnalSect="T 66"   MatProp=Default
 
TABLE:  "FRAME SECTION PROPERTIES 01 - GENERAL"
   SectionName="C 30X50"   Material=C30   Shape=Rectangular   t3=0.5   t2=3   Area=1.5   TorsConst=0.111875843942901   I33=0.03125   I22=1.125   I23=0   AS2=1.25   AS3=1.25   S33=0.125   S22=0.75   Z33=0.1875   Z22=1.125 _
        R33=0.144337567297406   R22=0.866025403784439   Color=Gray8Dark   FromFile=No   AMod=0.7   A2Mod=0.5   A3Mod=0.01   JMod=1   I2Mod=1   I3Mod=1   MMod=1   WMod=1
   SectionName="IPE 500"   Material=S240   Shape="I/Wide Flange"   t3=0.5   t2=0.2   tf=0.016   tw=0.0102   t2b=0.2   tfb=0.016   Area=0.0111736   TorsConst=6.81883553797334E-07   I33=0.000462073880533333   I22=2.13747204453333E-05   I23=0 _
        AS2=0.0051   AS3=0.00533333333333333   S33=0.00184829552213333   S22=0.000213747204453333   Z33=0.0021073112   Z22=0.00033217268   R33=0.203357011032772   R22=0.0437374704059382   Color=Green   FromFile=No   AMod=1   A2Mod=1 _
        A3Mod=1   JMod=1   I2Mod=1   I3Mod=1   MMod=1   WMod=1
   SectionName="T 66"   Material=S240   Shape=Tee   t3=0.1   t2=0.1   tf=0.006   tw=0.006   Area=0.001164   TorsConst=1.375416E-08   I33=1.14389612371134E-06   I22=5.01692E-07   I23=0   AS2=0.0006   AS3=0.0005   S33=1.57186462671767E-05 _
        S22=1.003384E-05   Z33=2.830476E-05   Z22=1.5846E-05   R33=0.0313485028130211   R22=0.0207607050181884   Color=Cyan   FromFile=No   AMod=1   A2Mod=1   A3Mod=1   JMod=1   I2Mod=1   I3Mod=1   MMod=1   WMod=1
 
TABLE:  "FRAME SECTION PROPERTIES 02 - CONCRETE COLUMN"
   SectionName="C 30X50"   RebarMatL=A615Gr60   RebarMatC=A615Gr60   ReinfConfig=Rectangular   LatReinf=Ties   Cover=0.04   NumBars3Dir=3   NumBars2Dir=3   BarSizeL=#9   BarSizeC=#4   SpacingC=0.15   NumCBars2=3   NumCBars3=3   ReinfType=Design
 
TABLE:  "FRAME SECTION PROPERTIES 13 - TIME DEPENDENT"
   SectionName="C 30X50"   TypeSize=Auto   AutoSFSize=0
   SectionName="IPE 500"   TypeSize=Auto   AutoSFSize=0
   SectionName="T 66"   TypeSize=Auto   AutoSFSize=0
 
TABLE:  "FUNCTION - PLOT FUNCTIONS"
   PlotFunc="Input Energy"   Type=Energy   Component=Input   Mode=All
 
TABLE:  "FUNCTION - POWER SPECTRAL DENSITY - USER"
   Name=UNIFPSD   Frequency=0   Value=1
   Name=UNIFPSD   Frequency=1   Value=1
 
TABLE:  "FUNCTION - RESPONSE SPECTRUM - USER"
   Name=UNIFRS   Period=0   Accel=1   FuncDamp=0.05
   Name=UNIFRS   Period=1   Accel=1
 
TABLE:  "FUNCTION - STEADY STATE - USER"
   Name=UNIFSS   Frequency=0   Value=1
   Name=UNIFSS   Frequency=1   Value=1
 
TABLE:  "FUNCTION - TIME HISTORY - USER"
   Name=RAMPTH   Time=0   Value=0
   Name=RAMPTH   Time=1   Value=1
   Name=RAMPTH   Time=4   Value=1
   Name=UNIFTH   Time=0   Value=1
   Name=UNIFTH   Time=1   Value=1
 
TABLE:  "GROUPS 1 - DEFINITIONS"
   GroupName=ALL   Selection=Yes   SectionCut=Yes   Steel=Yes   Concrete=Yes   Aluminum=Yes   ColdFormed=Yes   Stage=Yes   Bridge=Yes   AutoSeismic=No   AutoWind=No   SelDesSteel=No   SelDesAlum=No   SelDesCold=No   MassWeight=Yes   Color=Red
 
TABLE:  "JOINT COORDINATES"
   Joint=1   CoordSys=GLOBAL   CoordType=Cartesian   XorR=18   Y=12   Z=9   SpecialJt=Yes   GUID=953ab0e8-6b11-44ee-a30b-83379485cdb7
   Joint=2   CoordSys=GLOBAL   CoordType=Cartesian   XorR=18   Y=0   Z=9   SpecialJt=Yes   GUID=953ab0e8-6b11-44ee-a30b-83379485cdb7
   Joint=3   CoordSys=GLOBAL   CoordType=Cartesian   XorR=18   Y=0   Z=0   SpecialJt=Yes   GUID=953ab0e8-6b11-44ee-a30b-83379485cdb7
   Joint=4   CoordSys=GLOBAL   CoordType=Cartesian   XorR=18   Y=12   Z=0   SpecialJt=Yes   GUID=953ab0e8-6b11-44ee-a30b-83379485cdb7
   Joint=5   CoordSys=GLOBAL   CoordType=Cartesian   XorR=12   Y=12   Z=9   SpecialJt=Yes   GUID=953ab0e8-6b11-44ee-a30b-83379485cdb7
   Joint=6   CoordSys=GLOBAL   CoordType=Cartesian   XorR=12   Y=0   Z=9   SpecialJt=Yes   GUID=953ab0e8-6b11-44ee-a30b-83379485cdb7
   Joint=7   CoordSys=GLOBAL   CoordType=Cartesian   XorR=12   Y=0   Z=0   SpecialJt=Yes   GUID=953ab0e8-6b11-44ee-a30b-83379485cdb7
   Joint=8   CoordSys=GLOBAL   CoordType=Cartesian   XorR=12   Y=12   Z=0   SpecialJt=Yes   GUID=953ab0e8-6b11-44ee-a30b-83379485cdb7
   Joint=9   CoordSys=GLOBAL   CoordType=Cartesian   XorR=6   Y=12   Z=9   SpecialJt=Yes   GUID=953ab0e8-6b11-44ee-a30b-83379485cdb7
   Joint=10   CoordSys=GLOBAL   CoordType=Cartesian   XorR=6   Y=0   Z=9   SpecialJt=Yes   GUID=953ab0e8-6b11-44ee-a30b-83379485cdb7
   Joint=11   CoordSys=GLOBAL   CoordType=Cartesian   XorR=6   Y=0   Z=0   SpecialJt=Yes   GUID=953ab0e8-6b11-44ee-a30b-83379485cdb7
   Joint=12   CoordSys=GLOBAL   CoordType=Cartesian   XorR=6   Y=12   Z=0   SpecialJt=Yes   GUID=953ab0e8-6b11-44ee-a30b-83379485cdb7
   Joint=13   CoordSys=GLOBAL   CoordType=Cartesian   XorR=0   Y=12   Z=9   SpecialJt=Yes   GUID=953ab0e8-6b11-44ee-a30b-83379485cdb7
   Joint=14   CoordSys=GLOBAL   CoordType=Cartesian   XorR=0   Y=0   Z=9   SpecialJt=Yes   GUID=953ab0e8-6b11-44ee-a30b-83379485cdb7
   Joint=15   CoordSys=GLOBAL   CoordType=Cartesian   XorR=0   Y=0   Z=0   SpecialJt=Yes   GUID=953ab0e8-6b11-44ee-a30b-83379485cdb7
   Joint=16   CoordSys=GLOBAL   CoordType=Cartesian   XorR=0   Y=12   Z=0   SpecialJt=Yes   GUID=953ab0e8-6b11-44ee-a30b-83379485cdb7
   Joint=17   CoordSys=GLOBAL   CoordType=Cartesian   XorR=6   Y=8   Z=9   SpecialJt=Yes   GUID=953ab0e8-6b11-44ee-a30b-83379485cdb7
   Joint=18   CoordSys=GLOBAL   CoordType=Cartesian   XorR=0   Y=4   Z=9   SpecialJt=Yes   GUID=953ab0e8-6b11-44ee-a30b-83379485cdb7
   Joint=19   CoordSys=GLOBAL   CoordType=Cartesian   XorR=0   Y=8   Z=9   SpecialJt=Yes   GUID=953ab0e8-6b11-44ee-a30b-83379485cdb7
   Joint=20   CoordSys=GLOBAL   CoordType=Cartesian   XorR=6   Y=4   Z=9   SpecialJt=Yes   GUID=953ab0e8-6b11-44ee-a30b-83379485cdb7
# ... 246 like lines cut
 
TABLE:  "JOINT PATTERN DEFINITIONS"
   Pattern=Default
 
TABLE:  "JOINT RESTRAINT ASSIGNMENTS"
   Joint=3   U1=Yes   U2=Yes   U3=Yes   R1=Yes   R2=Yes   R3=Yes
   Joint=4   U1=Yes   U2=Yes   U3=Yes   R1=Yes   R2=Yes   R3=Yes
   Joint=7   U1=Yes   U2=Yes   U3=Yes   R1=Yes   R2=Yes   R3=Yes
   Joint=8   U1=Yes   U2=Yes   U3=Yes   R1=Yes   R2=Yes   R3=Yes
   Joint=11   U1=Yes   U2=Yes   U3=Yes   R1=Yes   R2=Yes   R3=Yes
   Joint=12   U1=Yes   U2=Yes   U3=Yes   R1=Yes   R2=Yes   R3=Yes
   Joint=15   U1=Yes   U2=Yes   U3=Yes   R1=Yes   R2=Yes   R3=Yes
   Joint=16   U1=Yes   U2=Yes   U3=Yes   R1=Yes   R2=Yes   R3=Yes
 
TABLE:  "LOAD CASE DEFINITIONS"
   Case=p1   Type=LinStatic   InitialCond=Zero   DesTypeOpt="Prog Det"   DesignType=Dead   DesActOpt="Prog Det"   DesignAct=Non-Composite   AutoType=None   RunCase=Yes
   Case=p2   Type=LinStatic   InitialCond=Zero   DesTypeOpt="Prog Det"   DesignType=Live   DesActOpt="Prog Det"   DesignAct="Short-Term Composite"   AutoType=None   RunCase=Yes
   Case=p3   Type=LinStatic   InitialCond=Zero   DesTypeOpt="Prog Det"   DesignType=Wind   DesActOpt="Prog Det"   DesignAct="Short-Term Composite"   AutoType=None   RunCase=Yes
 
TABLE:  "LOAD PATTERN DEFINITIONS"
   LoadPat=p1   DesignType=Dead   SelfWtMult=1
   LoadPat=p2   DesignType=Live   SelfWtMult=0
   LoadPat=p3   DesignType=Wind   SelfWtMult=0   AutoLoad=None
 
TABLE:  "MASS SOURCE"
   MassSource=MSSSRC1   Elements=Yes   Masses=Yes   Loads=No   IsDefault=Yes
 
TABLE:  "MATERIAL PROPERTIES 01 - GENERAL"
   Material=4000Psi   Type=Concrete   SymType=Isotropic   TempDepend=No   Color=Gray8Dark   Notes="Customary f'c 4000 psi 25-Mar-17 8:15:59 PM"
   Material=A615Gr60   Type=Rebar   SymType=Uniaxial   TempDepend=No   Color=Blue   Notes="ASTM A615 Grade 60 25-Mar-17 8:16:00 PM"
   Material=A992Fy50   Type=Steel   SymType=Isotropic   TempDepend=No   Color=Yellow   Notes="ASTM A992 Grade 50 25-Mar-17 8:15:59 PM"
   Material=C30   Type=Concrete   SymType=Isotropic   TempDepend=No   Color=Magenta
   Material=S240   Type=Steel   SymType=Isotropic   TempDepend=No   Color=Yellow
 
TABLE:  "MATERIAL PROPERTIES 02 - BASIC MECHANICAL PROPERTIES"
   Material=4000Psi   UnitWeight=23.5631216161854   UnitMass=2.40276960558926   E1=24855578.0600518   G12=10356490.8583549   U12=0.2   A1=9.89999952793124E-06
   Material=A615Gr60   UnitWeight=76.9728639422648   UnitMass=7.84904737995992   E1=199947978.795958   A1=1.16999994421006E-05
   Material=A992Fy50   UnitWeight=76.9728639422648   UnitMass=7.84904737995992   E1=199947978.795958   G12=76903068.767676   U12=0.3   A1=1.16999994421006E-05
   Material=C30   UnitWeight=25   UnitMass=2.54929048055605   E1=4400000   G12=1833333.33333333   U12=0.2   A1=5E-09
   Material=S240   UnitWeight=78.5   UnitMass=8.004772108946   E1=2100000   G12=807692.307692308   U12=0.3   A1=5E-09
 
TABLE:  "MATERIAL PROPERTIES 03A - STEEL DATA"
   Material=A992Fy50   Fy=344737.894475789   Fu=448159.262818526   EffFy=379211.683923368   EffFu=492975.189100378   SSCurveOpt=Simple   SSHysType=Kinematic   SHard=0.015   SMax=0.11   SRup=0.17   FinalSlope=-0.1
   Material=S240   Fy=240000   Fu=360000   EffFy=240000   EffFu=360000   SSCurveOpt=Simple   SSHysType=Kinematic   SHard=0.015   SMax=0.11   SRup=0.17   FinalSlope=-0.1
 
TABLE:  "MATERIAL PROPERTIES 03B - CONCRETE DATA"
   Material=4000Psi   Fc=27579.0315580631   eFc=27579.0315580631   LtWtConc=No   SSCurveOpt=Mander   SSHysType=Takeda   SFc=0.00221914   SCap=0.005   FinalSlope=-0.1   FAngle=0   DAngle=0
   Material=C30   Fc=30000   eFc=30000   LtWtConc=No   SSCurveOpt=Mander   SSHysType=Takeda   SFc=0.0022   SCap=0.0052   FinalSlope=-0.1   FAngle=0   DAngle=0
 
TABLE:  "MATERIAL PROPERTIES 03E - REBAR DATA"
   Material=A615Gr60   Fy=413685.473370947   Fu=620528.21005642   EffFy=455054.020708041   EffFu=682581.031062062   SSCurveOpt=Simple   SSHysType=Kinematic   SHard=0.01   SCap=0.09   FinalSlope=-0.1   UseCTDef=No
 
TABLE:  "MATERIAL PROPERTIES 06 - DAMPING PARAMETERS"
   Material=4000Psi   ModalRatio=0   VisMass=0   VisStiff=0   HysMass=0   HysStiff=0
   Material=A615Gr60   ModalRatio=0   VisMass=0   VisStiff=0   HysMass=0   HysStiff=0
   Material=A992Fy50   ModalRatio=0   VisMass=0   VisStiff=0   HysMass=0   HysStiff=0
   Material=C30   ModalRatio=0   VisMass=0   VisStiff=0   HysMass=0   HysStiff=0
   Material=S240   ModalRatio=0   VisMass=0   VisStiff=0   HysMass=0   HysStiff=0
 
TABLE:  "OPTIONS - COLORS - DISPLAY"
   DeviceType=Screen   Points=Blue   LinesFrame=Blue   LinesFrmDL=Blue   LinesCable=Green   LinesTendon=Green   SpringLinks=Green   Restraints=Green   Releases=Green   Axes=Cyan   Text=Black   ShadowLines=Gray8Dark   GuideLines=Gray8Dark _
        Highlight=Red   Selection=10504778   AreaFillBot=Red   AreaFillTop=16744703   AreaFillSd=Red   AreaEdge=DarkRed   SolidF1=Red   SolidF2=Blue   SolidF3=Green   SolidF4=Yellow   SolidF5=White   SolidF6=Cyan   SolidEdge=DarkRed _
        Floor=Gray4   Background=White   BGLowLeft=White   BGLowRight=White   BGUpRight=White   Darkness=0.5
   DeviceType=Printer   Points=Gray8Dark   LinesFrame=Black   LinesFrmDL=Gray4   LinesCable=Black   LinesTendon=Black   SpringLinks=Gray8Dark   Restraints=Gray8Dark   Releases=Gray4   Axes=Black   Text=Black   ShadowLines=Gray4 _
        GuideLines=Gray4   Highlight=Black   Selection=Black   AreaFillBot=Gray4   AreaFillTop=Gray8Dark   AreaFillSd=Gray4   AreaEdge=Black   SolidF1=Gray1Light   SolidF2=Gray2   SolidF3=Gray3   SolidF4=Gray4   SolidF5=Gray5 _
        SolidF6=Gray6   SolidEdge=Black   Floor=Gray4   Background=White   BGLowLeft=White   BGLowRight=White   BGUpRight=White   Darkness=0.5
   DeviceType="Color Printer"   Points=Blue   LinesFrame=Blue   LinesFrmDL=Blue   LinesCable=Green   LinesTendon=Green   SpringLinks=Green   Restraints=Green   Releases=Green   Axes=Cyan   Text=Black   ShadowLines=Gray8Dark _
        GuideLines=Gray8Dark   Highlight=Red   Selection=10504778   AreaFillBot=Red   AreaFillTop=16744703   AreaFillSd=Red   AreaEdge=DarkRed   SolidF1=Red   SolidF2=Blue   SolidF3=Green   SolidF4=Yellow   SolidF5=White   SolidF6=Cyan _
        SolidEdge=DarkRed   Floor=Gray4   Background=White   BGLowLeft=White   BGLowRight=White   BGUpRight=White   Darkness=0.5
 
TABLE:  "OPTIONS - COLORS - OUTPUT"
   DeviceType=Screen   Contour1=13107400   Contour2=6553828   Contour3=Red   Contour4=16639   Contour5=Orange   Contour6=43775   Contour7=54527   Contour8=Yellow   Contour9=65408   Contour10=Green   Contour11=8453888   Contour12=Cyan _
        Contour13=16755200   Contour14=16733440   Contour15=Blue   Transpare=0.5   Ratio1=Cyan   Ratio2=Green   Ratio3=Yellow   Ratio4=Orange   Ratio5=Red   RatioNotD=Gray4   RatioNotC=Red   RatioVal1=0.5   RatioVal2=0.7   RatioVal3=0.9 _
        RatioVal4=1   DFillPos=Blue   DFillNeg=Red   DFillRPos=Green   DFillRNeg=Green
   DeviceType=Printer   Contour1=Black   Contour2=3158064   Contour3=4210752   Contour4=5263440   Contour5=6316128   Contour6=7368816   Contour7=Gray8Dark   Contour8=Gray7   Contour9=Gray6   Contour10=Gray5   Contour11=Gray4 _
        Contour12=Gray3   Contour13=Gray2   Contour14=Gray1Light   Contour15=White   Transpare=0   Ratio1=Gray2   Ratio2=Gray4   Ratio3=Gray8Dark   Ratio4=4210752   Ratio5=Black   RatioNotD=Gray4   RatioNotC=Black   RatioVal1=0.5 _
        RatioVal2=0.7   RatioVal3=0.9   RatioVal4=1   DFillPos=Gray8Dark   DFillNeg=Gray8Dark   DFillRPos=4210752   DFillRNeg=4210752
   DeviceType="Color Printer"   Contour1=13107400   Contour2=6553828   Contour3=Red   Contour4=16639   Contour5=Orange   Contour6=43775   Contour7=54527   Contour8=Yellow   Contour9=65408   Contour10=Green   Contour11=8453888 _
        Contour12=Cyan   Contour13=16755200   Contour14=16733440   Contour15=Blue   Transpare=0   Ratio1=Cyan   Ratio2=Green   Ratio3=Yellow   Ratio4=Orange   Ratio5=Red   RatioNotD=Gray4   RatioNotC=Red   RatioVal1=0.5   RatioVal2=0.7 _
        RatioVal3=0.9   RatioVal4=1   DFillPos=Blue   DFillNeg=Red   DFillRPos=Green   DFillRNeg=Green
 
TABLE:  "PREFERENCES - ALUMINUM DESIGN - AA-ASD 2000"
   THDesign=Envelopes   FrameType="Moment Frame"   SRatioLimit=1   MaxIter=1   LatFact=1.33333333333333   UseLatFact=No   Bridge=No
 
TABLE:  "PREFERENCES - COLD FORMED DESIGN - AISI-ASD96"
   THDesign=Envelopes   FrameType="Braced Frame"   SRatioLimit=1   MaxIter=1   OmegaBS=1.67   OmegaBUS=1.67   OmegaBLTB=1.67   OmegaVS=1.67   OmegaVNS=1.5   OmegaT=1.67   OmegaC=1.8
 
TABLE:  "PREFERENCES - CONCRETE DESIGN - ACI 318-14"
   THDesign=Envelopes   NumCurves=24   NumPoints=11   MinEccen=Yes   PatLLF=0.75   UFLimit=0.95   SeisCat=D   Rho=1   Sds=0.5   PhiT=0.9   PhiCTied=0.65   PhiCSpiral=0.75   PhiV=0.75   PhiVSeismic=0.6   PhiVJoint=0.85
 
TABLE:  "PREFERENCES - DIMENSIONAL"
   MergeTol=0.001   FineGrid=0.25   Nudge=0.25   SelectTol=3   SnapTol=12   SLineThick=2   PLineThick=4   MaxFont=8   MinFont=3   AutoZoom=10   ShrinkFact=70   TextFileLen=240
 
TABLE:  "PREFERENCES - STEEL DESIGN - AISC 360-10"
   THDesign=Envelopes   FrameType=SMF   PatLLF=0.75   SRatioLimit=0.95   MaxIter=1   SDC=D   SeisCode=Yes   SeisLoad=Yes   ImpFactor=1   SystemRho=1   SystemSds=0.5   SystemR=8   SystemCd=5.5   Omega0=3   Provision=LRFD _
        AMethod="Direct Analysis"   SOMethod="General 2nd Order"   SRMethod="Tau-b Fixed"   NLCoeff=0.002   PhiB=0.9   PhiC=0.9   PhiTY=0.9   PhiTF=0.75   PhiV=0.9   PhiVRolledI=1   PhiVT=0.9   PlugWeld=Yes   HSSWelding=ERW   HSSReduceT=No _
        CheckDefl=No   DLRat=120   SDLAndLLRat=120   LLRat=360   TotalRat=240   NetRat=240
 
TABLE:  "PROGRAM CONTROL"
   ProgramName=SAP2000   Version=18.2.0   CurrUnits="KN, m, C"   SteelCode="AISC 360-10"   ConcCode="ACI 318-14"   AlumCode="AA-ASD 2000"   ColdCode=AISI-ASD96   RegenHinge=Yes
 
TABLE:  "PROJECT INFORMATION"
   Item="Company Name"
   Item="Client Name"
   Item="Project Name"
   Item="Project Number"
   Item="Model Name"
   Item="Model Description"
   Item="Revision Number"
   Item="Frame Type"
   Item=Engineer
   Item=Checker
   Item=Supervisor
   Item="Issue Code"
   Item="Design Code"
 
TABLE:  "REBAR SIZES"
   RebarID=#2   Area=3.2258E-05   Diameter=0.00635
   RebarID=#3   Area=7.09675996154547E-05   Diameter=0.009525
   RebarID=#4   Area=0.000129032001922727   Diameter=0.0127
   RebarID=#5   Area=0.000199999601538181   Diameter=0.015875
   RebarID=#6   Area=0.000283870398461819   Diameter=0.01905
   RebarID=#7   Area=0.000387096015381813   Diameter=0.022225
   RebarID=#8   Area=0.000509676413843632   Diameter=0.0254
   RebarID=#9   Area=0.00064516   Diameter=0.0286512005329132
   RebarID=#10   Area=0.00081935318769455   Diameter=0.0322579995155334
   RebarID=#11   Area=0.00100644956308365   Diameter=0.0358139991521835
   RebarID=#14   Area=0.00145161   Diameter=0.0430021989583969
   RebarID=#18   Area=0.00258064   Diameter=0.0573277992248535
   RebarID=10M   Area=0.000100000002655387   Diameter=0.011300000667572
   RebarID=15M   Area=0.000200000005310774   Diameter=0.0159999999403954
   RebarID=20M   Area=0.000300000017579794   Diameter=0.0194999997854233
   RebarID=25M   Area=0.000500000022890568   Diameter=0.0252000016093254
   RebarID=30M   Area=0.000700000008974075   Diameter=0.0299000008821487
   RebarID=35M   Area=0.00100000004578114   Diameter=0.0357000011444092
   RebarID=45M   Area=0.00150000010712624   Diameter=0.0437000003576279
   RebarID=55M   Area=0.00250000007599831   Diameter=0.0564000033855438
   RebarID=6d   Area=2.83000004149973E-05   Diameter=0.006000000166893
   RebarID=8d   Area=5.02999995571375E-05   Diameter=0.00799999997019768
   RebarID=10d   Area=7.85000013634562E-05   Diameter=0.00999999977350235
   RebarID=12d   Area=0.000113000009249449   Diameter=0.012000000333786
   RebarID=14d   Area=0.000154000010818839   Diameter=0.0140000008940697
   RebarID=16d   Area=0.000201000015431643   Diameter=0.0159999999403954
   RebarID=20d   Area=0.000314000005453825   Diameter=0.0199999995470047
   RebarID=25d   Area=0.000491000008711815   Diameter=0.0250000001907349
   RebarID=26d   Area=0.000531000029001236   Diameter=0.0259999997138977
   RebarID=28d   Area=0.000616000043275356   Diameter=0.0280000017881393
   RebarID=N12   Area=0.000113000009249449   Diameter=0.012000000333786
   RebarID=N16   Area=0.000201000015431643   Diameter=0.0159999999403954
   RebarID=N20   Area=0.000314000005453825   Diameter=0.0199999995470047
   RebarID=N24   Area=0.000452000036997795   Diameter=0.024000000667572
   RebarID=N28   Area=0.000616000043275356   Diameter=0.0280000017881393
   RebarID=N32   Area=0.00080400006172657   Diameter=0.0319999998807907
   RebarID=N36   Area=0.00102000001747131   Diameter=0.036000001001358
 
END TABLE DATA
